* SPICE3 file created from DPLLlay2.ext - technology: sky130A

.subckt Caplay1 top bot VSUBS
X0 top bot sky130_fd_pr__cap_mim_m3_1 l=10 w=10
C0 top bot 1.19418f
C1 top VSUBS 0.55041f
C2 bot VSUBS 3.33627f
.ends

.subckt inverter A B VDD GND
X0 B A VDD VDD sky130_fd_pr__pfet_01v8 ad=0.45 pd=2.9 as=0.45 ps=2.9 w=1 l=0.15
X1 B A GND GND sky130_fd_pr__nfet_01v8 ad=0.45 pd=2.9 as=0.45 ps=2.9 w=1 l=0.15
C0 B A 0.06678f
C1 A VDD 0.07153f
C2 B VDD 0.12853f
C3 B GND 0.33657f
C4 A GND 0.40779f
C5 VDD GND 0.69294f
.ends

.subckt PMOS a_280_840# a_160_790# w_n610_790# a_580_790# a_n260_790# a_700_840# a_n140_840#
+ VSUBS
X0 a_280_840# a_160_790# w_n610_790# w_n610_790# sky130_fd_pr__pfet_01v8 ad=1.8 pd=7.2 as=1.8 ps=7.2 w=3 l=0.6
X1 a_700_840# a_580_790# w_n610_790# w_n610_790# sky130_fd_pr__pfet_01v8 ad=1.8 pd=7.2 as=1.8 ps=7.2 w=3 l=0.6
X2 a_n140_840# a_n260_790# w_n610_790# w_n610_790# sky130_fd_pr__pfet_01v8 ad=1.8 pd=7.2 as=1.8 ps=7.2 w=3 l=0.6
C0 a_280_840# w_n610_790# 0.31574f
C1 a_580_790# w_n610_790# 0.18652f
C2 a_n260_790# a_160_790# 0.00533f
C3 a_700_840# w_n610_790# 0.18492f
C4 a_160_790# w_n610_790# 0.18965f
C5 a_160_790# a_280_840# 0.07042f
C6 a_580_790# a_700_840# 0.07042f
C7 a_160_790# a_580_790# 0.00533f
C8 a_n260_790# a_n140_840# 0.07042f
C9 a_n260_790# w_n610_790# 0.19037f
C10 a_n140_840# w_n610_790# 0.31574f
C11 a_700_840# VSUBS 0.12444f
C12 a_280_840# VSUBS 0.02803f
C13 a_n140_840# VSUBS 0.02803f
C14 a_580_790# VSUBS 0.07481f
C15 a_160_790# VSUBS 0.06632f
C16 a_n260_790# VSUBS 0.07095f
C17 w_n610_790# VSUBS 3.30585f
.ends

.subckt NAND3lay A B C VDD GND Y a_110_90# a_350_90#
X0 Y A a_350_90# GND sky130_fd_pr__nfet_01v8 ad=2.7 pd=10.2 as=1.35 ps=5.1 w=4.5 l=0.6
X1 a_110_90# C GND GND sky130_fd_pr__nfet_01v8 ad=1.35 pd=5.1 as=2.7 ps=10.2 w=4.5 l=0.6
X2 Y B VDD VDD sky130_fd_pr__pfet_01v8 ad=1.8 pd=7.2 as=1.8 ps=7.2 w=3 l=0.6
X3 Y A VDD VDD sky130_fd_pr__pfet_01v8 ad=1.8 pd=7.2 as=1.8 ps=7.2 w=3 l=0.6
X4 a_350_90# B a_110_90# GND sky130_fd_pr__nfet_01v8 ad=1.35 pd=5.1 as=1.35 ps=5.1 w=4.5 l=0.6
X5 Y C VDD VDD sky130_fd_pr__pfet_01v8 ad=1.8 pd=7.2 as=1.8 ps=7.2 w=3 l=0.6
C0 VDD C 0.20604f
C1 B a_350_90# 0.10544f
C2 VDD a_350_90# 0.00138f
C3 VDD B 0.26164f
C4 Y a_110_90# 0
C5 A C 0.08281f
C6 Y C 0.08845f
C7 A a_350_90# 0.11064f
C8 A B 0.38267f
C9 Y a_350_90# 0.1333f
C10 Y B 0.1278f
C11 VDD A 0.4622f
C12 Y VDD 1.08182f
C13 a_110_90# C 0.10442f
C14 a_110_90# a_350_90# 0.13254f
C15 a_110_90# B 0.11468f
C16 a_110_90# VDD 0.00138f
C17 Y A 0.46488f
C18 B C 0.30907f
C19 Y GND 0.95911f
C20 A GND 0.91562f
C21 B GND 0.67944f
C22 C GND 0.80237f
C23 VDD GND 3.24008f
C24 a_350_90# GND 0.1294f
C25 a_110_90# GND 0.25955f
.ends

.subckt NMOS a_n300_0# a_240_n50# a_360_0# a_600_0# a_120_0# a_480_n50# a_0_n50#
X0 a_120_0# a_0_n50# a_n300_0# a_n300_0# sky130_fd_pr__nfet_01v8 ad=1.35 pd=5.1 as=2.7 ps=10.2 w=4.5 l=0.6
X1 a_360_0# a_240_n50# a_120_0# a_n300_0# sky130_fd_pr__nfet_01v8 ad=1.35 pd=5.1 as=1.35 ps=5.1 w=4.5 l=0.6
X2 a_600_0# a_480_n50# a_360_0# a_n300_0# sky130_fd_pr__nfet_01v8 ad=2.7 pd=10.2 as=1.35 ps=5.1 w=4.5 l=0.6
C0 a_480_n50# a_360_0# 0.10442f
C1 a_600_0# a_360_0# 0.13254f
C2 a_480_n50# a_600_0# 0.10442f
C3 a_240_n50# a_120_0# 0.10442f
C4 a_240_n50# a_0_n50# 0.01333f
C5 a_240_n50# a_360_0# 0.10442f
C6 a_240_n50# a_480_n50# 0.01333f
C7 a_120_0# a_0_n50# 0.10442f
C8 a_360_0# a_120_0# 0.13254f
C9 a_600_0# a_n300_0# 0.27884f
C10 a_360_0# a_n300_0# 0.11878f
C11 a_120_0# a_n300_0# 0.25131f
C12 a_480_n50# a_n300_0# 0.19144f
C13 a_240_n50# a_n300_0# 0.17973f
C14 a_0_n50# a_n300_0# 0.29586f
.ends

.subckt NAND2lay A B VDD GND C a_110_n10#
X0 a_110_n10# B GND GND sky130_fd_pr__nfet_01v8 ad=0.9 pd=3.6 as=1.8 ps=7.2 w=3 l=0.6
X1 C A a_110_n10# GND sky130_fd_pr__nfet_01v8 ad=1.8 pd=7.2 as=0.9 ps=3.6 w=3 l=0.6
X2 VDD A C VDD sky130_fd_pr__pfet_01v8 ad=1.8 pd=7.2 as=0.9 ps=3.6 w=3 l=0.6
X3 C B VDD VDD sky130_fd_pr__pfet_01v8 ad=0.9 pd=3.6 as=1.8 ps=7.2 w=3 l=0.6
C0 B A 0.24311f
C1 B C 0.1267f
C2 VDD a_110_n10# 0.00111f
C3 a_110_n10# A 0.10272f
C4 a_110_n10# C 0.09423f
C5 VDD A 0.1918f
C6 a_110_n10# B 0.07581f
C7 VDD C 0.31297f
C8 VDD B 0.26271f
C9 C A 0.34483f
C10 C GND 0.43806f
C11 A GND 0.61157f
C12 B GND 0.57584f
C13 VDD GND 2.20835f
C14 a_110_n10# GND 0.20293f
.ends

.subckt DLATCHlay2 NMOS_0/a_360_0# NMOS_0/a_120_0# NAND3lay_0/a_110_90# NAND2lay_0/a_110_n10#
+ NMOS_1/a_360_0# NAND2lay_1/a_110_n10# NMOS_1/a_120_0# NAND3lay_0/a_350_90# NMOS_2/a_360_0#
+ NAND2lay_1/B d NMOS_2/a_120_0# q a_3880_1000# clock NAND3lay_0/A NAND3lay_0/Y VN
+ VP NAND2lay_0/A clear
XPMOS_0 a_3880_1000# clock VP NAND3lay_0/Y NAND2lay_0/A a_3880_1000# a_3880_1000#
+ VN PMOS
XPMOS_1 NAND2lay_0/A clear VP d a_3880_1000# NAND2lay_0/A NAND2lay_0/A VN PMOS
XPMOS_2 NAND2lay_1/B a_3880_1000# VP q clear NAND2lay_1/B NAND2lay_1/B VN PMOS
XNAND3lay_0 NAND3lay_0/A clear clock VP VN NAND3lay_0/Y NAND3lay_0/a_110_90# NAND3lay_0/a_350_90#
+ NAND3lay
XNMOS_0 VN clock NMOS_0/a_360_0# a_3880_1000# NMOS_0/a_120_0# NAND3lay_0/Y NAND2lay_0/A
+ NMOS
XNMOS_1 VN clear NMOS_1/a_360_0# NAND2lay_0/A NMOS_1/a_120_0# d a_3880_1000# NMOS
XNMOS_2 VN a_3880_1000# NMOS_2/a_360_0# NAND2lay_1/B NMOS_2/a_120_0# q clear NMOS
XNAND2lay_0 NAND2lay_0/A NAND3lay_0/Y VP VN NAND3lay_0/A NAND2lay_0/a_110_n10# NAND2lay
XNAND2lay_1 NAND3lay_0/Y NAND2lay_1/B VP VN q NAND2lay_1/a_110_n10# NAND2lay
C0 NAND3lay_0/a_350_90# NAND2lay_0/A 0
C1 NAND3lay_0/Y d 0.00528f
C2 clear a_3880_1000# 1.40834f
C3 VP q 0.27748f
C4 NAND2lay_1/B NMOS_2/a_360_0# 0.00123f
C5 d clear 0.6604f
C6 VP NMOS_0/a_120_0# 0.00116f
C7 NAND3lay_0/Y NMOS_1/a_120_0# 0
C8 VP NMOS_2/a_120_0# 0.00116f
C9 NAND2lay_1/a_110_n10# NAND2lay_1/B 0.01781f
C10 NAND3lay_0/A VP 0.18345f
C11 NAND3lay_0/a_350_90# NAND3lay_0/A 0
C12 d a_3880_1000# 0.04139f
C13 NAND2lay_0/A q 0.01478f
C14 VP NMOS_0/a_360_0# 0.00116f
C15 NAND3lay_0/Y NMOS_1/a_360_0# 0
C16 NAND3lay_0/Y NAND2lay_1/B 0.67623f
C17 VP NMOS_2/a_360_0# 0.00116f
C18 VP clock 0.05606f
C19 NAND3lay_0/a_350_90# clock 0.02821f
C20 NAND2lay_1/a_110_n10# VP 0
C21 NAND3lay_0/a_110_90# NAND2lay_0/A 0
C22 NAND2lay_0/A NMOS_0/a_120_0# 0.01021f
C23 NMOS_1/a_120_0# a_3880_1000# 0.02977f
C24 NAND2lay_0/A NMOS_2/a_120_0# 0.02857f
C25 NMOS_1/a_360_0# clear 0.0026f
C26 NAND2lay_1/B clear 0.03937f
C27 q NMOS_2/a_120_0# 0
C28 NAND3lay_0/Y VP 1.29759f
C29 NAND2lay_0/A NAND3lay_0/A 0.05486f
C30 NAND2lay_0/A NMOS_0/a_360_0# 0.01787f
C31 NMOS_1/a_360_0# a_3880_1000# 0
C32 NAND2lay_1/B a_3880_1000# 0.15657f
C33 NAND2lay_0/A NMOS_2/a_360_0# 0.00657f
C34 NAND2lay_0/A clock 0.87113f
C35 q NMOS_2/a_360_0# 0
C36 clear VP 0.1828f
C37 NAND3lay_0/a_110_90# NAND3lay_0/A 0
C38 d NMOS_1/a_360_0# 0.01997f
C39 NAND2lay_1/a_110_n10# q 0.001f
C40 NAND2lay_1/B d 0
C41 NAND3lay_0/Y NAND2lay_0/A 0.577f
C42 a_3880_1000# VP 0.48587f
C43 NAND3lay_0/a_110_90# clock 0.02821f
C44 NMOS_0/a_120_0# clock 0.02773f
C45 NAND3lay_0/Y q 0.07143f
C46 NAND3lay_0/A clock 0.05182f
C47 d VP 0.10606f
C48 NAND2lay_0/A clear 0.95698f
C49 NAND3lay_0/Y NMOS_0/a_120_0# 0.00603f
C50 NMOS_0/a_360_0# clock 0.00225f
C51 clear q 0
C52 NAND3lay_0/Y NMOS_2/a_120_0# 0
C53 NAND2lay_1/B NMOS_1/a_360_0# 0
C54 NAND3lay_0/Y NAND3lay_0/A 0.08286f
C55 NAND2lay_0/A a_3880_1000# 0.58757f
C56 NMOS_1/a_120_0# VP 0.00116f
C57 NAND3lay_0/Y NMOS_0/a_360_0# 0.00594f
C58 a_3880_1000# q 0.50936f
C59 clear NMOS_2/a_120_0# 0.0033f
C60 NAND3lay_0/Y NMOS_2/a_360_0# 0
C61 NAND3lay_0/Y clock 0.38435f
C62 d NAND2lay_0/A 0.26326f
C63 clear NAND3lay_0/A 0.01142f
C64 a_3880_1000# NMOS_0/a_120_0# 0
C65 d q 0
C66 NMOS_1/a_360_0# VP 0.00172f
C67 NAND2lay_1/B VP 0.36697f
C68 a_3880_1000# NMOS_2/a_120_0# 0.02773f
C69 clear NMOS_2/a_360_0# 0.00106f
C70 clear clock 0.0883f
C71 NAND3lay_0/A a_3880_1000# 0
C72 NMOS_1/a_120_0# NAND2lay_0/A 0.02821f
C73 a_3880_1000# NMOS_0/a_360_0# 0
C74 a_3880_1000# NMOS_2/a_360_0# 0.00395f
C75 a_3880_1000# clock 0.0569f
C76 NAND3lay_0/Y clear 0.02495f
C77 NMOS_1/a_360_0# NAND2lay_0/A 0.02913f
C78 NAND2lay_1/B NAND2lay_0/A 0.04134f
C79 d NMOS_2/a_360_0# 0
C80 NAND2lay_1/B q 0.44018f
C81 NAND3lay_0/Y a_3880_1000# 0.80886f
C82 NAND2lay_1/B NMOS_2/a_120_0# 0
C83 NAND2lay_0/A VP 0.43478f
C84 NAND2lay_1/a_110_n10# VN 0.01819f
C85 NAND3lay_0/Y VN 3.41407f
C86 NAND2lay_0/a_110_n10# VN 0.00173f
C87 NMOS_2/a_360_0# VN 0.01268f
C88 NMOS_2/a_120_0# VN 0.00535f
C89 q VN 1.68638f
C90 NMOS_1/a_360_0# VN 0
C91 NMOS_1/a_120_0# VN 0
C92 d VN 0.6762f
C93 NMOS_0/a_360_0# VN 0
C94 NMOS_0/a_120_0# VN 0.001f
C95 clock VN 0.78949f
C96 NAND3lay_0/A VN 0.07435f
C97 clear VN 2.74978f
C98 VP VN -1.28403f
C99 NAND3lay_0/a_350_90# VN 0.00161f
C100 NAND3lay_0/a_110_90# VN 0.0015f
C101 NAND2lay_1/B VN 0.49901f
C102 NAND2lay_0/A VN 2.05872f
C103 a_3880_1000# VN 1.76551f
.ends

.subckt PFDlay2 Dclock Out DLATCHlay2_0/NAND2lay_0/a_110_n10# DLATCHlay2_1/NMOS_2/a_120_0#
+ DLATCHlay2_1/NAND2lay_0/a_110_n10# DLATCHlay2_1/NMOS_0/a_360_0# NAND2lay_0/a_110_n10#
+ DLATCHlay2_1/NAND2lay_1/a_110_n10# DLATCHlay2_1/NAND3lay_0/A DLATCHlay2_1/NMOS_0/a_120_0#
+ DLATCHlay2_1/NAND3lay_0/a_110_90# DLATCHlay2_1/NMOS_1/a_360_0# DLATCHlay2_0/NAND3lay_0/A
+ inverter_0/B DLATCHlay2_1/NMOS_1/a_120_0# DLATCHlay2_1/NAND3lay_0/a_350_90# DLATCHlay2_1/NAND3lay_0/Y
+ Data DLATCHlay2_0/NAND2lay_1/B DLATCHlay2_0/NAND2lay_0/A DLATCHlay2_1/NMOS_2/a_360_0#
+ VDD NAND2lay_0/C DLATCHlay2_0/NAND3lay_0/Y inverter_0/A DLATCHlay2_1/NAND2lay_0/A
+ DLATCHlay2_1/a_3880_1000# DLATCHlay2_1/NAND2lay_1/B GND DLATCHlay2_0/a_3880_1000#
+ NAND2lay_0/A
Xinverter_0 inverter_0/A inverter_0/B VDD GND inverter
XDLATCHlay2_0 DLATCHlay2_0/NMOS_0/a_360_0# DLATCHlay2_0/NMOS_0/a_120_0# DLATCHlay2_0/NAND3lay_0/a_110_90#
+ DLATCHlay2_0/NAND2lay_0/a_110_n10# DLATCHlay2_0/NMOS_1/a_360_0# DLATCHlay2_0/NAND2lay_1/a_110_n10#
+ DLATCHlay2_0/NMOS_1/a_120_0# DLATCHlay2_0/NAND3lay_0/a_350_90# DLATCHlay2_0/NMOS_2/a_360_0#
+ DLATCHlay2_0/NAND2lay_1/B VDD DLATCHlay2_0/NMOS_2/a_120_0# inverter_0/A DLATCHlay2_0/a_3880_1000#
+ Data DLATCHlay2_0/NAND3lay_0/A DLATCHlay2_0/NAND3lay_0/Y GND VDD DLATCHlay2_0/NAND2lay_0/A
+ NAND2lay_0/C DLATCHlay2
XDLATCHlay2_1 DLATCHlay2_1/NMOS_0/a_360_0# DLATCHlay2_1/NMOS_0/a_120_0# DLATCHlay2_1/NAND3lay_0/a_110_90#
+ DLATCHlay2_1/NAND2lay_0/a_110_n10# DLATCHlay2_1/NMOS_1/a_360_0# DLATCHlay2_1/NAND2lay_1/a_110_n10#
+ DLATCHlay2_1/NMOS_1/a_120_0# DLATCHlay2_1/NAND3lay_0/a_350_90# DLATCHlay2_1/NMOS_2/a_360_0#
+ DLATCHlay2_1/NAND2lay_1/B VDD DLATCHlay2_1/NMOS_2/a_120_0# NAND2lay_0/A DLATCHlay2_1/a_3880_1000#
+ Dclock DLATCHlay2_1/NAND3lay_0/A DLATCHlay2_1/NAND3lay_0/Y GND VDD DLATCHlay2_1/NAND2lay_0/A
+ NAND2lay_0/C DLATCHlay2
XNAND2lay_0 NAND2lay_0/A inverter_0/A VDD GND NAND2lay_0/C NAND2lay_0/a_110_n10# NAND2lay
X0 GND NAND2lay_0/A Out GND sky130_fd_pr__nfet_01v8 ad=0.9 pd=4.2 as=0.9 ps=4.2 w=1.5 l=0.6
X1 Out inverter_0/B VDD VDD sky130_fd_pr__pfet_01v8 ad=0.9 pd=4.2 as=0.9 ps=4.2 w=1.5 l=0.6
C0 Out VDD 0.18635f
C1 DLATCHlay2_0/NAND3lay_0/A VDD 0.0089f
C2 DLATCHlay2_1/NAND3lay_0/A DLATCHlay2_0/NAND2lay_0/A 0
C3 DLATCHlay2_1/NAND3lay_0/Y DLATCHlay2_0/NAND2lay_0/A 0.10903f
C4 DLATCHlay2_1/NAND3lay_0/Y Dclock 0
C5 DLATCHlay2_0/NAND2lay_0/A Data 0.0117f
C6 DLATCHlay2_0/NMOS_2/a_360_0# DLATCHlay2_1/NAND3lay_0/Y 0.0066f
C7 Dclock Data 0.0042f
C8 DLATCHlay2_0/NAND3lay_0/Y DLATCHlay2_1/a_3880_1000# 0.00526f
C9 inverter_0/A NAND2lay_0/C 0.00234f
C10 DLATCHlay2_0/NAND3lay_0/a_110_90# VDD 0
C11 DLATCHlay2_1/NAND2lay_0/A VDD 0.00959f
C12 DLATCHlay2_0/NAND3lay_0/a_350_90# NAND2lay_0/C 0
C13 DLATCHlay2_0/NMOS_2/a_120_0# VDD 0.00113f
C14 DLATCHlay2_0/NAND2lay_0/A DLATCHlay2_1/a_3880_1000# 0
C15 DLATCHlay2_1/NAND3lay_0/A NAND2lay_0/C 0.00114f
C16 DLATCHlay2_1/NAND3lay_0/Y NAND2lay_0/C 1.20954f
C17 DLATCHlay2_0/NAND3lay_0/Y Dclock 0.00145f
C18 DLATCHlay2_0/NMOS_1/a_120_0# DLATCHlay2_1/NAND3lay_0/Y 0.00108f
C19 DLATCHlay2_1/NAND3lay_0/Y DLATCHlay2_0/a_3880_1000# 0.02669f
C20 DLATCHlay2_1/NAND2lay_1/B NAND2lay_0/C 0
C21 DLATCHlay2_0/NAND2lay_0/a_110_n10# DLATCHlay2_1/NAND3lay_0/Y 0.00292f
C22 NAND2lay_0/C Data 0.00153f
C23 inverter_0/A inverter_0/B 0.00593f
C24 inverter_0/A VDD 0.28685f
C25 inverter_0/A Out 0.03945f
C26 Dclock DLATCHlay2_0/NAND2lay_0/A 0.00102f
C27 DLATCHlay2_1/NMOS_2/a_360_0# NAND2lay_0/C 0.01429f
C28 DLATCHlay2_0/NAND3lay_0/a_350_90# VDD 0
C29 inverter_0/A DLATCHlay2_0/NAND2lay_1/a_110_n10# 0
C30 NAND2lay_0/A NAND2lay_0/C 0.91054f
C31 DLATCHlay2_0/NMOS_0/a_360_0# VDD 0.00113f
C32 DLATCHlay2_1/NMOS_1/a_360_0# VDD 0
C33 DLATCHlay2_1/NAND3lay_0/Y NAND2lay_0/a_110_n10# 0
C34 DLATCHlay2_1/a_3880_1000# NAND2lay_0/C 0.10075f
C35 DLATCHlay2_0/NAND2lay_1/B NAND2lay_0/C 0
C36 DLATCHlay2_0/NMOS_1/a_360_0# VDD 0.00186f
C37 DLATCHlay2_1/NAND3lay_0/A VDD 0.00148f
C38 DLATCHlay2_1/NAND3lay_0/Y VDD 0.10768f
C39 DLATCHlay2_0/NAND3lay_0/Y NAND2lay_0/C 0
C40 DLATCHlay2_1/NAND3lay_0/A DLATCHlay2_0/NAND3lay_0/A 0
C41 NAND2lay_0/a_110_n10# DLATCHlay2_1/NAND2lay_1/B 0
C42 DLATCHlay2_1/NAND3lay_0/Y DLATCHlay2_0/NAND3lay_0/A 0
C43 DLATCHlay2_0/a_3880_1000# DLATCHlay2_1/a_3880_1000# 0.0013f
C44 inverter_0/A DLATCHlay2_1/NAND2lay_0/A 0
C45 DLATCHlay2_1/NAND2lay_1/B VDD 0
C46 VDD Data 0.01582f
C47 DLATCHlay2_0/NAND2lay_0/A NAND2lay_0/C 0.00373f
C48 Dclock NAND2lay_0/C 0.00113f
C49 DLATCHlay2_1/NAND2lay_0/A DLATCHlay2_0/NMOS_0/a_360_0# 0
C50 NAND2lay_0/A NAND2lay_0/a_110_n10# 0.00993f
C51 DLATCHlay2_0/a_3880_1000# DLATCHlay2_0/NAND2lay_0/A -0
C52 Dclock DLATCHlay2_0/a_3880_1000# 0
C53 DLATCHlay2_1/NAND2lay_0/A DLATCHlay2_1/NAND3lay_0/Y 0
C54 NAND2lay_0/A VDD 0.02569f
C55 NAND2lay_0/A Out 0.0754f
C56 DLATCHlay2_0/NAND2lay_1/B inverter_0/B 0
C57 DLATCHlay2_0/NAND3lay_0/Y inverter_0/B 0.022f
C58 DLATCHlay2_1/a_3880_1000# VDD 0.11107f
C59 DLATCHlay2_0/NAND2lay_1/B VDD 0.02179f
C60 DLATCHlay2_1/NAND2lay_0/A Data 0.00201f
C61 Out DLATCHlay2_0/NAND2lay_1/B 0
C62 DLATCHlay2_0/NAND3lay_0/Y VDD 0.18191f
C63 DLATCHlay2_0/NAND3lay_0/Y Out 0.00186f
C64 DLATCHlay2_0/NMOS_0/a_120_0# VDD 0.00113f
C65 DLATCHlay2_0/NAND2lay_0/A VDD 0.04596f
C66 DLATCHlay2_0/NAND3lay_0/A DLATCHlay2_0/NAND2lay_0/A 0
C67 Dclock VDD 0.00551f
C68 inverter_0/A DLATCHlay2_1/NAND3lay_0/Y 0.21113f
C69 DLATCHlay2_1/NAND2lay_0/A DLATCHlay2_1/a_3880_1000# -0
C70 DLATCHlay2_0/NMOS_2/a_360_0# VDD 0.00124f
C71 DLATCHlay2_0/a_3880_1000# NAND2lay_0/C 0
C72 inverter_0/A DLATCHlay2_1/NAND2lay_1/B 0
C73 DLATCHlay2_1/NAND2lay_0/A DLATCHlay2_0/NMOS_0/a_120_0# 0
C74 DLATCHlay2_1/NAND2lay_0/A DLATCHlay2_0/NAND2lay_0/A 0.00463f
C75 DLATCHlay2_1/NAND2lay_0/A Dclock 0.02264f
C76 inverter_0/A NAND2lay_0/A 0.02378f
C77 DLATCHlay2_1/NAND3lay_0/A Data 0
C78 DLATCHlay2_1/NAND3lay_0/Y Data 0.00138f
C79 inverter_0/B NAND2lay_0/C 0
C80 NAND2lay_0/a_110_n10# NAND2lay_0/C 0
C81 inverter_0/A DLATCHlay2_1/a_3880_1000# 0
C82 inverter_0/A DLATCHlay2_0/NAND2lay_1/B 0.00127f
C83 NAND2lay_0/C VDD 0.13158f
C84 Out NAND2lay_0/C 0.01428f
C85 DLATCHlay2_0/NAND3lay_0/Y inverter_0/A 0
C86 DLATCHlay2_0/NAND3lay_0/A NAND2lay_0/C 0.003f
C87 DLATCHlay2_0/NMOS_1/a_120_0# VDD 0.00113f
C88 DLATCHlay2_0/a_3880_1000# VDD 0.12148f
C89 DLATCHlay2_0/NAND2lay_0/a_110_n10# VDD 0.00269f
C90 DLATCHlay2_0/NAND2lay_1/a_110_n10# NAND2lay_0/C 0
C91 NAND2lay_0/A DLATCHlay2_1/NAND3lay_0/Y 0.02338f
C92 DLATCHlay2_0/NMOS_1/a_360_0# DLATCHlay2_1/a_3880_1000# 0
C93 NAND2lay_0/A DLATCHlay2_1/NAND2lay_1/B 0
C94 DLATCHlay2_1/NAND3lay_0/A DLATCHlay2_0/NAND3lay_0/Y 0
C95 DLATCHlay2_0/NAND3lay_0/Y DLATCHlay2_1/NAND3lay_0/Y 0.00458f
C96 DLATCHlay2_1/NAND2lay_0/A NAND2lay_0/C 0.00238f
C97 DLATCHlay2_0/NAND3lay_0/Y DLATCHlay2_1/NAND2lay_1/B 0
C98 DLATCHlay2_0/NAND3lay_0/Y Data 0
C99 inverter_0/B VDD 0.19913f
C100 Out inverter_0/B 0.19027f
C101 DLATCHlay2_0/NMOS_2/a_120_0# NAND2lay_0/C 0
C102 DLATCHlay2_1/NAND2lay_0/A DLATCHlay2_0/a_3880_1000# 0.00115f
C103 Out GND 1.02606f
C104 NAND2lay_0/a_110_n10# GND 0.00756f
C105 DLATCHlay2_1/NAND2lay_1/a_110_n10# GND 0.00624f
C106 DLATCHlay2_1/NAND3lay_0/Y GND -1.64679f
C107 NAND2lay_0/A GND -0.08635f
C108 DLATCHlay2_1/NMOS_1/a_360_0# GND -0
C109 Dclock GND -0.57467f
C110 DLATCHlay2_1/NAND3lay_0/A GND -0.40097f
C111 VDD GND -1.84797f
C112 DLATCHlay2_1/NAND2lay_1/B GND -0.76181f
C113 DLATCHlay2_1/NAND2lay_0/A GND -1.19183f
C114 DLATCHlay2_1/a_3880_1000# GND -1.39364f
C115 DLATCHlay2_0/NAND2lay_1/a_110_n10# GND 0.00599f
C116 DLATCHlay2_0/NAND3lay_0/Y GND -2.14255f
C117 DLATCHlay2_0/NAND2lay_0/a_110_n10# GND 0
C118 inverter_0/A GND -0.1805f
C119 DLATCHlay2_0/NMOS_1/a_360_0# GND -0
C120 Data GND -0.59197f
C121 DLATCHlay2_0/NAND3lay_0/A GND -0.40293f
C122 NAND2lay_0/C GND -0.24024f
C123 DLATCHlay2_0/NAND2lay_1/B GND -0.8084f
C124 DLATCHlay2_0/NAND2lay_0/A GND -1.19272f
C125 DLATCHlay2_0/a_3880_1000# GND -1.40443f
C126 inverter_0/B GND 0.11095f
.ends

.subckt bufferlay In VDD GND Out a_n6232_n13130#
X0 VDD In a_n6232_n13130# VDD sky130_fd_pr__pfet_01v8 ad=1.8 pd=7.2 as=1.8 ps=7.2 w=3 l=0.6
X1 Out a_n6232_n13130# GND GND sky130_fd_pr__nfet_01v8 ad=0.9 pd=4.2 as=0.9 ps=4.2 w=1.5 l=0.6
X2 GND In a_n6232_n13130# GND sky130_fd_pr__nfet_01v8 ad=0.9 pd=4.2 as=0.9 ps=4.2 w=1.5 l=0.6
X3 Out a_n6232_n13130# VDD VDD sky130_fd_pr__pfet_01v8 ad=1.8 pd=7.2 as=1.8 ps=7.2 w=3 l=0.6
C0 VDD In 0.20355f
C1 Out In 0
C2 In a_n6232_n13130# 0.23651f
C3 VDD Out 0.12418f
C4 VDD a_n6232_n13130# 0.33329f
C5 Out a_n6232_n13130# 0.14011f
C6 Out GND 0.32436f
C7 In GND 0.45389f
C8 VDD GND 2.24076f
C9 a_n6232_n13130# GND 1.01033f
.ends

.subckt VCOlay12 In VDD GND Out a_1780_n60# a_4580_n60# a_2600_n60# a_5880_490# a_5400_n60#
+ a_480_n60# a_1780_490# a_0_n60# a_3280_n60# a_1300_n60# a_4580_490# a_4100_n60#
+ a_480_490# a_3280_490# a_5880_n60#
X0 a_2600_n60# a_1300_n60# a_1780_490# VDD sky130_fd_pr__pfet_01v8 ad=1.8 pd=7.2 as=0.9 ps=3.6 w=3 l=3.5
X1 a_1780_n60# In GND GND sky130_fd_pr__nfet_01v8 ad=0.45 pd=2.1 as=0.9 ps=4.2 w=1.5 l=0.6
X2 a_4100_n60# a_2600_n60# a_3280_490# VDD sky130_fd_pr__pfet_01v8 ad=1.8 pd=7.2 as=0.9 ps=3.6 w=3 l=3.5
X3 a_3280_n60# In GND GND sky130_fd_pr__nfet_01v8 ad=0.45 pd=2.1 as=0.9 ps=4.2 w=1.5 l=0.6
X4 a_5880_490# a_0_n60# VDD VDD sky130_fd_pr__pfet_01v8 ad=0.9 pd=3.6 as=1.8 ps=7.2 w=3 l=0.6
X5 Out a_5400_n60# a_5880_n60# GND sky130_fd_pr__nfet_01v8 ad=0.9 pd=4.2 as=0.45 ps=2.1 w=1.5 l=3.5
X6 a_480_490# a_0_n60# VDD VDD sky130_fd_pr__pfet_01v8 ad=0.9 pd=3.6 as=0.9 ps=3.6 w=3 l=0.6
X7 a_4580_490# a_0_n60# VDD VDD sky130_fd_pr__pfet_01v8 ad=0.9 pd=3.6 as=1.8 ps=7.2 w=3 l=0.6
X8 a_1780_490# a_0_n60# VDD VDD sky130_fd_pr__pfet_01v8 ad=0.9 pd=3.6 as=1.8 ps=7.2 w=3 l=0.6
X9 a_3280_490# a_0_n60# VDD VDD sky130_fd_pr__pfet_01v8 ad=0.9 pd=3.6 as=1.8 ps=7.2 w=3 l=0.6
X10 GND In a_0_n60# GND sky130_fd_pr__nfet_01v8 ad=0.45 pd=2.1 as=0.9 ps=4.2 w=1.5 l=0.6
X11 a_1300_n60# Out a_480_n60# GND sky130_fd_pr__nfet_01v8 ad=0.9 pd=4.2 as=0.45 ps=2.1 w=1.5 l=3.5
X12 Out a_5400_n60# a_5880_490# VDD sky130_fd_pr__pfet_01v8 ad=1.8 pd=7.2 as=0.9 ps=3.6 w=3 l=3.5
X13 a_5400_n60# a_4100_n60# a_4580_n60# GND sky130_fd_pr__nfet_01v8 ad=0.9 pd=4.2 as=0.45 ps=2.1 w=1.5 l=3.5
X14 a_2600_n60# a_1300_n60# a_1780_n60# GND sky130_fd_pr__nfet_01v8 ad=0.9 pd=4.2 as=0.45 ps=2.1 w=1.5 l=3.5
X15 a_4100_n60# a_2600_n60# a_3280_n60# GND sky130_fd_pr__nfet_01v8 ad=0.9 pd=4.2 as=0.45 ps=2.1 w=1.5 l=3.5
X16 a_5880_n60# In GND GND sky130_fd_pr__nfet_01v8 ad=0.45 pd=2.1 as=0.9 ps=4.2 w=1.5 l=0.6
X17 VDD a_0_n60# a_0_n60# VDD sky130_fd_pr__pfet_01v8 ad=0.9 pd=3.6 as=1.8 ps=7.2 w=3 l=0.6
X18 a_1300_n60# Out a_480_490# VDD sky130_fd_pr__pfet_01v8 ad=1.8 pd=7.2 as=0.9 ps=3.6 w=3 l=3.5
X19 a_480_n60# In GND GND sky130_fd_pr__nfet_01v8 ad=0.45 pd=2.1 as=0.45 ps=2.1 w=1.5 l=0.6
X20 a_5400_n60# a_4100_n60# a_4580_490# VDD sky130_fd_pr__pfet_01v8 ad=1.8 pd=7.2 as=0.9 ps=3.6 w=3 l=3.5
X21 a_4580_n60# In GND GND sky130_fd_pr__nfet_01v8 ad=0.45 pd=2.1 as=0.9 ps=4.2 w=1.5 l=0.6
C0 a_2600_n60# In 0.36375f
C1 a_480_490# a_0_n60# 0.00163f
C2 VDD a_3280_490# 0.03045f
C3 VDD a_5880_n60# 0
C4 a_1300_n60# a_480_n60# 0
C5 a_2600_n60# a_1780_n60# 0
C6 In a_5400_n60# 0.20716f
C7 a_5880_490# VDD 0.01346f
C8 a_3280_490# a_4100_n60# 0
C9 VDD a_4100_n60# 0.59641f
C10 a_2600_n60# Out 0.00367f
C11 In a_480_490# 0.00231f
C12 VDD a_4580_n60# 0
C13 Out a_5400_n60# 0.274f
C14 In a_0_n60# 0.1621f
C15 a_1300_n60# a_1780_490# 0.01796f
C16 a_2600_n60# a_1300_n60# 0.07546f
C17 a_3280_n60# In 0.01756f
C18 VDD a_480_n60# 0.00154f
C19 a_4580_n60# a_4100_n60# 0.00883f
C20 Out a_0_n60# 2.09819f
C21 a_1300_n60# a_480_490# 0
C22 In a_1780_n60# 0.01779f
C23 VDD a_1780_490# 0.02649f
C24 a_2600_n60# a_3280_490# 0.01652f
C25 a_1300_n60# a_0_n60# 0.06534f
C26 a_2600_n60# VDD 0.66193f
C27 Out In 0.21169f
C28 a_4580_490# VDD 0.026f
C29 a_2600_n60# a_4100_n60# 0.06813f
C30 VDD a_5400_n60# 0.46343f
C31 a_5400_n60# a_5880_n60# 0.00929f
C32 a_4580_490# a_4100_n60# 0.01704f
C33 a_5880_490# a_5400_n60# 0.01719f
C34 In a_1300_n60# 0.36241f
C35 a_5400_n60# a_4100_n60# 0.07615f
C36 VDD a_480_490# 0.02773f
C37 a_1300_n60# a_1780_n60# 0.00847f
C38 VDD a_0_n60# 2.71275f
C39 a_4580_n60# a_5400_n60# 0
C40 VDD a_3280_n60# 0
C41 Out a_1300_n60# 0.07178f
C42 a_4100_n60# a_0_n60# 0.05569f
C43 a_3280_n60# a_4100_n60# 0
C44 VDD In 0.07794f
C45 In a_5880_n60# 0.00536f
C46 a_2600_n60# a_1780_490# 0
C47 VDD a_1780_n60# 0
C48 a_480_n60# a_0_n60# 0.00119f
C49 In a_4100_n60# 0.42562f
C50 Out VDD 1.45659f
C51 Out a_5880_n60# 0
C52 a_2600_n60# a_5400_n60# 0
C53 In a_4580_n60# 0.01942f
C54 a_5880_490# Out 0.01274f
C55 a_4580_490# a_5400_n60# 0
C56 Out a_4100_n60# 0.0037f
C57 In a_480_n60# 0.01339f
C58 VDD a_1300_n60# 0.61465f
C59 a_2600_n60# a_0_n60# 0.05424f
C60 a_2600_n60# a_3280_n60# 0.00883f
C61 a_5400_n60# a_0_n60# 0.04895f
C62 In GND 4.75404f
C63 Out GND 3.39076f
C64 VDD GND 17.6183f
C65 a_5880_n60# GND 0.01223f
C66 a_4580_n60# GND 0.00424f
C67 a_3280_n60# GND 0.00826f
C68 a_1780_n60# GND 0.00492f
C69 a_480_n60# GND 0.01519f
C70 a_5400_n60# GND 1.16072f
C71 a_4100_n60# GND 1.04555f
C72 a_2600_n60# GND 1.12304f
C73 a_1300_n60# GND 1.0644f
C74 a_0_n60# GND 1.94841f
.ends

.subckt XNORlay VDD GND out a_110_2000# A inverter_1/B a_110_960# inverter_0/B B a_1110_960#
Xinverter_0 B inverter_0/B VDD GND inverter
Xinverter_1 A inverter_1/B VDD GND inverter
X0 out inverter_1/B a_110_2000# VDD sky130_fd_pr__pfet_01v8 ad=3.6 pd=13.2 as=1.8 ps=6.6 w=6 l=0.6
X1 a_110_960# A out GND sky130_fd_pr__nfet_01v8 ad=0.9 pd=3.6 as=1.8 ps=7.2 w=3 l=0.6
X2 GND B a_1110_960# GND sky130_fd_pr__nfet_01v8 ad=1.8 pd=7.2 as=0.9 ps=3.6 w=3 l=0.6
X3 a_1110_960# inverter_1/B out GND sky130_fd_pr__nfet_01v8 ad=0.9 pd=3.6 as=1.8 ps=7.2 w=3 l=0.6
X4 a_110_2000# inverter_0/B VDD VDD sky130_fd_pr__pfet_01v8 ad=1.8 pd=6.6 as=3.6 ps=13.2 w=6 l=0.6
X5 out B a_110_2000# VDD sky130_fd_pr__pfet_01v8 ad=3.6 pd=13.2 as=1.8 ps=6.6 w=6 l=0.6
X6 a_110_2000# A VDD VDD sky130_fd_pr__pfet_01v8 ad=1.8 pd=6.6 as=3.6 ps=13.2 w=6 l=0.6
X7 GND inverter_0/B a_110_960# GND sky130_fd_pr__nfet_01v8 ad=1.8 pd=7.2 as=0.9 ps=3.6 w=3 l=0.6
C0 a_110_960# B 0
C1 out A 0.29812f
C2 B A 0.01337f
C3 out a_1110_960# 0.10227f
C4 VDD inverter_0/B 0.40713f
C5 VDD a_110_2000# 0.70905f
C6 VDD inverter_1/B 0.28848f
C7 B a_1110_960# 0.09347f
C8 out B 0.27322f
C9 VDD a_110_960# 0
C10 a_110_2000# inverter_0/B 0.19533f
C11 inverter_1/B inverter_0/B 0.30512f
C12 inverter_1/B a_110_2000# 0.30187f
C13 VDD A 0.53275f
C14 a_110_960# inverter_0/B 0.1085f
C15 VDD a_1110_960# 0
C16 out VDD 0.60035f
C17 VDD B 0.12177f
C18 inverter_0/B A 0.08747f
C19 a_110_2000# A 0.16248f
C20 inverter_1/B A 0.07523f
C21 inverter_0/B a_1110_960# 0
C22 inverter_1/B a_1110_960# 0.07581f
C23 out inverter_0/B 0.2165f
C24 out a_110_2000# 0.48948f
C25 out inverter_1/B 0.64977f
C26 a_110_960# A 0.07581f
C27 inverter_0/B B 0.46003f
C28 a_110_2000# B 0.16375f
C29 inverter_1/B B 0.04789f
C30 out a_110_960# 0.10232f
C31 out GND 1.00728f
C32 a_1110_960# GND 0.20895f
C33 a_110_960# GND 0.20878f
C34 a_110_2000# GND 0.26728f
C35 inverter_1/B GND 1.35043f
C36 A GND 0.98984f
C37 VDD GND 7.56368f
C38 inverter_0/B GND 1.1554f
C39 B GND 1.38986f
.ends

.subckt XORlay VDD GND out a_100_30# a_800_30# a_100_990# A inverter_1/B B inverter_0/B
Xinverter_0 B inverter_0/B VDD GND inverter
Xinverter_1 A inverter_1/B VDD GND inverter
X0 out inverter_1/B a_100_990# VDD sky130_fd_pr__pfet_01v8 ad=3.6 pd=13.2 as=1.8 ps=6.6 w=6 l=0.6
X1 a_100_990# B VDD VDD sky130_fd_pr__pfet_01v8 ad=1.8 pd=6.6 as=3.6 ps=13.2 w=6 l=0.6
X2 a_100_30# A out GND sky130_fd_pr__nfet_01v8 ad=0.9 pd=3.6 as=1.8 ps=7.2 w=3 l=0.6
X3 a_100_990# A VDD VDD sky130_fd_pr__pfet_01v8 ad=1.8 pd=6.6 as=3.6 ps=13.2 w=6 l=0.6
X4 GND B a_100_30# GND sky130_fd_pr__nfet_01v8 ad=1.8 pd=7.2 as=0.9 ps=3.6 w=3 l=0.6
X5 a_800_30# inverter_1/B out GND sky130_fd_pr__nfet_01v8 ad=0.9 pd=3.6 as=1.8 ps=7.2 w=3 l=0.6
X6 GND inverter_0/B a_800_30# GND sky130_fd_pr__nfet_01v8 ad=1.8 pd=7.2 as=0.9 ps=3.6 w=3 l=0.6
X7 out inverter_0/B a_100_990# VDD sky130_fd_pr__pfet_01v8 ad=3.6 pd=13.2 as=1.8 ps=6.6 w=6 l=0.6
C0 A out 0.12356f
C1 A inverter_1/B 0.46929f
C2 inverter_1/B out 0.41508f
C3 A a_100_30# 0.07581f
C4 a_100_30# out 0.13598f
C5 a_100_990# inverter_0/B 0.16381f
C6 A VDD 0.53424f
C7 B inverter_0/B 0.70607f
C8 out VDD 0.74089f
C9 inverter_1/B VDD 0.36242f
C10 a_100_30# VDD 0.00213f
C11 A a_100_990# 0.18205f
C12 a_100_990# out 0.4548f
C13 a_100_990# inverter_1/B 0.29328f
C14 B A 0.05561f
C15 B out 0.18472f
C16 B inverter_1/B 0.25327f
C17 a_800_30# inverter_0/B 0.09455f
C18 a_100_30# a_100_990# 0.00654f
C19 B a_100_30# 0.07581f
C20 a_100_990# VDD 0.81356f
C21 B VDD 0.37703f
C22 A inverter_0/B 0.00981f
C23 out inverter_0/B 0.62663f
C24 inverter_1/B inverter_0/B 0.06028f
C25 a_800_30# out 0.11952f
C26 a_800_30# inverter_1/B 0.07581f
C27 a_100_30# inverter_0/B 0
C28 B a_100_990# 0.19506f
C29 inverter_0/B VDD 0.21651f
C30 a_800_30# VDD 0.00122f
C31 out GND 1.13608f
C32 a_800_30# GND 0.19396f
C33 a_100_30# GND 0.20093f
C34 a_100_990# GND 0.1822f
C35 inverter_1/B GND 0.98757f
C36 A GND 0.62307f
C37 VDD GND 5.93713f
C38 inverter_0/B GND 1.12229f
C39 B GND 1.3886f
.ends

.subckt Countlay DLATCHlay2_1/NMOS_2/a_120_0# XORlay_1/a_800_30# XORlay_1/a_100_990#
+ XORlay_1/inverter_0/B DLATCHlay2_1/NAND2lay_0/a_110_n10# DLATCHlay2_1/NMOS_0/a_360_0#
+ DLATCHlay2_1/NAND2lay_1/a_110_n10# NAND2lay_1/a_110_n10# DLATCHlay2_1/NMOS_0/a_120_0#
+ DLATCHlay2_1/NAND3lay_0/a_110_90# inverter_1/A DLATCHlay2_1/NAND3lay_0/A DLATCHlay2_1/NMOS_1/a_360_0#
+ XORlay_1/B XORlay_1/A XORlay_1/inverter_1/B DLATCHlay2_1/NMOS_1/a_120_0# DLATCHlay2_1/NAND3lay_0/a_350_90#
+ inverter_1/B XORlay_1/a_100_30# XORlay_1/out DLATCHlay2_1/NMOS_2/a_360_0# DLATCHlay2_1/NAND3lay_0/Y
+ DLATCHlay2_1/q DLATCHlay2_1/NAND2lay_1/B DLATCHlay2_1/a_3880_1000# DLATCHlay2_1/clear
+ XORlay_1/VDD DLATCHlay2_1/NAND2lay_0/A VSUBS DLATCHlay2_1/clock
Xinverter_1 inverter_1/A inverter_1/B XORlay_1/VDD VSUBS inverter
XXORlay_1 XORlay_1/VDD VSUBS XORlay_1/out XORlay_1/a_100_30# XORlay_1/a_800_30# XORlay_1/a_100_990#
+ XORlay_1/A XORlay_1/inverter_1/B XORlay_1/B XORlay_1/inverter_0/B XORlay
XDLATCHlay2_1 DLATCHlay2_1/NMOS_0/a_360_0# DLATCHlay2_1/NMOS_0/a_120_0# DLATCHlay2_1/NAND3lay_0/a_110_90#
+ DLATCHlay2_1/NAND2lay_0/a_110_n10# DLATCHlay2_1/NMOS_1/a_360_0# DLATCHlay2_1/NAND2lay_1/a_110_n10#
+ DLATCHlay2_1/NMOS_1/a_120_0# DLATCHlay2_1/NAND3lay_0/a_350_90# DLATCHlay2_1/NMOS_2/a_360_0#
+ DLATCHlay2_1/NAND2lay_1/B XORlay_1/out DLATCHlay2_1/NMOS_2/a_120_0# DLATCHlay2_1/q
+ DLATCHlay2_1/a_3880_1000# DLATCHlay2_1/clock DLATCHlay2_1/NAND3lay_0/A DLATCHlay2_1/NAND3lay_0/Y
+ VSUBS XORlay_1/VDD DLATCHlay2_1/NAND2lay_0/A DLATCHlay2_1/clear DLATCHlay2
XNAND2lay_1 XORlay_1/A XORlay_1/B XORlay_1/VDD VSUBS inverter_1/A NAND2lay_1/a_110_n10#
+ NAND2lay
C0 DLATCHlay2_1/NAND3lay_0/A XORlay_1/inverter_1/B 0
C1 DLATCHlay2_1/NAND3lay_0/Y DLATCHlay2_1/NAND2lay_0/A -0
C2 XORlay_1/a_800_30# DLATCHlay2_1/NAND3lay_0/Y 0
C3 XORlay_1/inverter_0/B DLATCHlay2_1/NAND2lay_0/A 0.00593f
C4 XORlay_1/A inverter_1/A 0.16336f
C5 XORlay_1/a_100_30# DLATCHlay2_1/NAND3lay_0/Y 0
C6 XORlay_1/out DLATCHlay2_1/NAND3lay_0/Y 1.90256f
C7 XORlay_1/out DLATCHlay2_1/clock 0.00241f
C8 XORlay_1/out XORlay_1/inverter_0/B 0
C9 XORlay_1/a_100_990# DLATCHlay2_1/NAND3lay_0/Y 0
C10 DLATCHlay2_1/NAND3lay_0/Y XORlay_1/VDD 0.00853f
C11 XORlay_1/VDD DLATCHlay2_1/clock 0
C12 XORlay_1/inverter_0/B XORlay_1/VDD 0.00346f
C13 XORlay_1/out DLATCHlay2_1/NAND3lay_0/A 0.00927f
C14 XORlay_1/inverter_1/B inverter_1/B 0.01687f
C15 XORlay_1/inverter_0/B XORlay_1/A 0.00997f
C16 XORlay_1/VDD XORlay_1/inverter_1/B 0.00901f
C17 XORlay_1/out DLATCHlay2_1/NAND2lay_0/A 0.03677f
C18 DLATCHlay2_1/NAND3lay_0/A XORlay_1/VDD 0.00129f
C19 XORlay_1/A XORlay_1/inverter_1/B -0
C20 XORlay_1/B NAND2lay_1/a_110_n10# 0.03269f
C21 inverter_1/A XORlay_1/inverter_1/B 0.0011f
C22 DLATCHlay2_1/NAND2lay_0/A XORlay_1/VDD 0
C23 XORlay_1/inverter_0/B DLATCHlay2_1/NAND2lay_0/a_110_n10# 0
C24 XORlay_1/A NAND2lay_1/a_110_n10# 0
C25 DLATCHlay2_1/a_3880_1000# XORlay_1/out 0.00145f
C26 XORlay_1/out XORlay_1/a_100_990# 0.00197f
C27 XORlay_1/out XORlay_1/VDD 0.2011f
C28 XORlay_1/out DLATCHlay2_1/NAND2lay_1/B 0
C29 XORlay_1/B inverter_1/B 0
C30 XORlay_1/inverter_0/B DLATCHlay2_1/NAND3lay_0/Y 0.00789f
C31 XORlay_1/a_100_30# XORlay_1/A 0
C32 XORlay_1/VDD inverter_1/B 0.16039f
C33 XORlay_1/out XORlay_1/A 0
C34 XORlay_1/a_100_990# XORlay_1/VDD 0.00134f
C35 XORlay_1/B XORlay_1/VDD 0.01188f
C36 XORlay_1/A inverter_1/B 0.00321f
C37 XORlay_1/a_100_990# XORlay_1/A 0
C38 XORlay_1/B XORlay_1/A 0.05684f
C39 DLATCHlay2_1/NAND3lay_0/Y DLATCHlay2_1/NAND3lay_0/A 0
C40 XORlay_1/A XORlay_1/VDD 0.30401f
C41 XORlay_1/out DLATCHlay2_1/clear 0.00246f
C42 XORlay_1/inverter_0/B DLATCHlay2_1/NAND3lay_0/A 0
C43 inverter_1/A inverter_1/B 0.01678f
C44 XORlay_1/a_100_990# inverter_1/A 0
C45 XORlay_1/B inverter_1/A 0.14363f
C46 XORlay_1/out DLATCHlay2_1/NAND2lay_0/a_110_n10# 0
C47 inverter_1/A XORlay_1/VDD 0.01594f
C48 inverter_1/A VSUBS -0.17396f
C49 NAND2lay_1/a_110_n10# VSUBS 0
C50 DLATCHlay2_1/NAND3lay_0/Y VSUBS -2.19303f
C51 DLATCHlay2_1/NAND2lay_0/a_110_n10# VSUBS 0
C52 DLATCHlay2_1/q VSUBS -0.78594f
C53 XORlay_1/out VSUBS 1.26015f
C54 DLATCHlay2_1/clock VSUBS -0.59472f
C55 DLATCHlay2_1/NAND3lay_0/A VSUBS -0.40301f
C56 DLATCHlay2_1/clear VSUBS -0.6647f
C57 DLATCHlay2_1/NAND2lay_1/B VSUBS -0.82122f
C58 DLATCHlay2_1/NAND2lay_0/A VSUBS -1.18887f
C59 DLATCHlay2_1/a_3880_1000# VSUBS -1.40552f